9
Properties=species:S:1:pos:R:3:mace_mp_forces:R:3:forces:R:3 Ethanol=T initial_spacegroup units="_JSON {\"energy\": \"eV\", \"forces\": \"ev/Ang\", \"stress\": \"ev/Ang^3\"}" final_spacegroup model_path=../ml/models/mace-omat-0-medium.model arch=mace_mp mace_mp_energy=-45.8823359462682 system_name=ethanol_reactants energy=-45.8823359462682 pbc="F F F"
H        1.84891667      -0.03726307       1.12201263       0.00010326      -0.00008596      -0.00035491       0.00010326      -0.00008596      -0.00035491
C        1.29030368      -0.04863050       0.17635548      -0.00019140       0.00000423      -0.00015373      -0.00019140       0.00000423      -0.00015373
H        1.58149201       0.81356802      -0.43063855      -0.00010194       0.00040644       0.00045302      -0.00010194       0.00040644       0.00045302
H        1.50546179      -0.97498457      -0.36420334      -0.00013548      -0.00027316       0.00033858      -0.00013548      -0.00027316       0.00033858
C       -0.19401903       0.02723995       0.52054862      -0.00005281      -0.00003700      -0.00042585      -0.00005281      -0.00003700      -0.00042585
H       -0.44720439      -0.83687442       1.15560273       0.00010292       0.00025953       0.00026107       0.00010292       0.00025953       0.00026107
H       -0.37090140       0.95386270       1.08990927       0.00000384      -0.00020973       0.00012203       0.00000384      -0.00020973       0.00012203
O       -0.97739220       0.01612743      -0.69265782      -0.00009034      -0.00019006      -0.00061089      -0.00009034      -0.00019006      -0.00061089
H       -1.90805713       0.06535445      -0.41862902       0.00036196       0.00012571       0.00037068       0.00036196       0.00012571       0.00037068
