12
Coordinates from ORCA-job 1waterTS E -231.163012578622
  C          -2.23539401727231      0.88998634879720      0.38125346403993
  C          -2.12942708891514     -0.56482807598127      0.83656713713554
  H          -1.22825973295439      1.27558394071691      0.14307153798957
  O          -3.02581066213225      1.05213102198059     -0.76914314446815
  H          -2.61317849420871      1.51144666332510      1.22406632851588
  H          -1.74142465540245     -1.19301352048347      0.01879867897412
  H          -1.45894479350749     -0.66888248848264      1.70694371396827
  H          -3.11917391441946     -0.96276420989355      1.12079080103133
  H          -3.95437768852813      0.95471061742009     -0.49166028492060
  O          -5.48388239916064      1.34858096241410      0.57788907520265
  H          -5.40460182068793      2.31361883614260      0.57245443238977
  H          -5.33236473281087      1.10708990404428      1.50256826014168
